118
 energy: -22.562230624255 gnorm: 0.000836821415 xtb: 6.5.1 (ff683c2162dacc8097304a2aefd97eb867d3cca5)
O            5.24957404212779       -4.28558643618125       -7.83516193568760
C            4.26475841583216       -4.66706527195615       -7.23703646575059
C            3.39614981828950       -3.62163946581533       -6.56932955931336
N            2.45971935682531       -4.23480396215090       -5.64045686853593
C            1.48916739989324       -3.45700622542904       -5.04990639777616
C            0.78442211402340       -3.98956504011986       -3.82013643879446
N            1.61957234793038       -4.97316363408536       -3.12938480595842
C            0.42652347297720       -2.84014871848520       -2.89254602631086
O            1.19885475769488       -2.35795106510271       -5.47934167132936
C            4.24886800658139       -2.55982444636775       -5.84814225237452
C            5.11513400046684       -3.14115676413226       -4.77535261568601
C            6.45312169219568       -3.62049429214255       -4.94747729670813
C            7.26615731613102       -3.67102194290126       -6.09914356303625
C            8.32592512378534       -4.54875838273883       -6.16454455414468
C            8.94173237833262       -4.90551658747779       -7.52040739092047
C           10.08318867312200       -5.91947968593264       -7.40097423868467
C           11.34389383749491       -5.77586702250206       -6.86591850921332
C           12.18119605444596       -6.87640320920919       -6.81163352826876
C           11.76325070910544       -8.11232530941405       -7.28190760501172
C           10.50643492600281       -8.27158236073971       -7.82199117830115
C            9.66465757153374       -7.16965599935943       -7.88589962716748
N            8.40074471293640       -7.06247282105419       -8.47397172923285
C            7.87718667208371       -5.69449253082059       -8.37247153272223
N            7.76074485591968       -5.01524431434740       -9.68496805786310
C            7.16987721164416       -5.61971415062842      -10.79473904760659
C            6.18606978314612       -6.76833470757298      -10.61668586229277
N            5.36232756684407       -6.61092540113244       -9.42161340924759
C            5.26222576406068       -6.96463361684923      -11.83767447617555
C            6.01059446903945       -7.46832315623237      -13.08433269255614
C            6.66179540669509       -8.83171108423273      -12.90893044640791
C            4.50287725521607       -5.67447609251519      -12.12954712399823
O            7.46243891533695       -5.26629343205238      -11.91954604909277
C            8.83011800205431       -3.98926504560806       -9.82973692212296
C            9.95808396905638       -4.49801008454711      -10.68678612626481
N           10.04766231411499       -5.86008127280450      -10.78905438599184
C           11.10872116434593       -6.48813233211102      -11.54102960083173
C           12.25364654898721       -6.91117077214239      -10.60721516884790
C           13.60691034355110       -6.86051501906355      -11.24609034866059
C           14.54127332770108       -5.91610247989300      -10.84620631475573
C           15.78323212885790       -5.86469108955203      -11.43228822539198
C           16.13321428286224       -6.75711385568121      -12.44554190188429
O           17.39022142761757       -6.68678446294059      -13.01469063842854
C           15.18653928168757       -7.69771384962540      -12.85317030583229
C           13.94730778061060       -7.74066083461047      -12.26139812464218
C           10.53032343565682       -7.63376190264033      -12.34933837504894
O            9.26028005750220       -7.47542438216776      -12.79728135888055
O           11.21720310403483       -8.60921166174971      -12.55949284519042
O           10.74426057467720       -3.73724415963852      -11.21129403443261
C            9.32427631682860       -3.67810399700331       -8.40110100554334
C            8.63533792274262       -5.32362689450622       -5.02670813261445
C            7.87035599628268       -5.29032757782509       -3.89280511494258
C            6.74015355617886       -4.45894709608646       -3.84861106370435
N            5.54405168769229       -4.66097193154071       -3.10327737847330
C            5.07436630182969       -6.03876394523933       -3.12342103591483
C            4.78645599420964       -6.49959819083213       -4.38685937709742
C            4.53492186295332       -7.82250925084347       -4.68298491419636
C            4.44450162759037       -8.23672236640455       -6.12812983293884
C            4.90034631577948       -7.10422947643414       -7.06911988816093
N            3.91193103209913       -6.00488800998688       -7.11913900758587
C            5.35113421216040       -7.56982794687687       -8.43424698254302
O            5.79042768053771       -8.69170692778195       -8.59836047714703
C            4.49539655479071       -8.70919929420279       -3.61759567022992
C            4.73594751105865       -8.27351246150621       -2.32620443569723
C            5.05329119383249       -6.94113778398743       -2.04512803479107
O            5.35409946403018       -6.49935112524425       -0.77343745681725
C            4.63850126517805       -3.70953765594208       -3.61758452087793
H            2.78859885392677       -3.13677245306786       -7.34752340035276
H            2.85367223304307       -5.03936517268162       -5.13601730848156
H           -0.14260865503481       -4.48146363268971       -4.16012341188208
H            1.20863423525431       -5.22974100890914       -2.24103902717881
H            1.71013570820073       -5.82374969801193       -3.66950089152754
H           -0.15129173457347       -2.08090661329129       -3.42094974209009
H           -0.14798180459523       -3.17930273823123       -2.03047163640952
H            1.33458931844719       -2.36349936177497       -2.52500410044599
H            3.58511699898756       -1.81031701250131       -5.40529726667671
H            4.87577666048377       -2.03609889196824       -6.57552893416150
H            6.93409524121656       -3.16951534926844       -6.98967611537114
H           11.65899921734423       -4.81907264205415       -6.48857971775675
H           13.16926785873490       -6.77203572228712       -6.39506443403961
H           12.43114131949566       -8.95628927762952       -7.23068225366917
H           10.17519007474851       -9.21793954429326       -8.21079920059016
H            7.68760621902531       -7.80290787250680       -8.45284698641152
H            6.90896117237956       -5.66073917544855       -7.86831284520663
H            6.77254462481864       -7.68360883860652      -10.46705481209445
H            5.21000481692923       -5.63727328878354       -9.13589912651623
H            4.53129663997169       -7.74016767153850      -11.55368177543159
H            6.76249048024824       -6.72136191628747      -13.36410592942874
H            5.31122175445629       -7.49838553782919      -13.92905372416468
H            7.12060243224575       -9.18311877538414      -13.83522185789073
H            7.45486235959563       -8.80635157007750      -12.16070712804260
H            5.93568741082016       -9.58105151210889      -12.59138223480102
H            5.20237427012610       -4.88071932328828      -12.39376879446269
H            3.80405036943749       -5.79451854826202      -12.95782479670081
H            3.94121975952855       -5.33929048490949      -11.25704478436697
H            8.39073116806403       -3.10771821504159      -10.31651832520841
H            9.53085172009862       -6.44074605035460      -10.10397510955500
H           11.48160200447005       -5.72334666965508      -12.23863943456501
H           12.05608505127137       -7.91986535894199      -10.23205512230109
H           12.24785694002745       -6.25849978557336       -9.72815575838593
H           14.28053408878864       -5.21355406214985      -10.07345703903202
H           16.50881398968452       -5.13246352576452      -11.12576565207330
H           17.47757317236670       -7.36229472545208      -13.72129950776671
H           15.43532105212049       -8.38515722368892      -13.64181822703169
H           13.20857213208857       -8.44680470100396      -12.59870645451281
H            8.83489985727902       -6.64113914430740      -12.46762498863314
H           10.40751134357972       -3.53091303094606       -8.40155766116113
H            8.87628623795874       -2.76159516351656       -8.00853469348332
H            9.45442859727448       -6.01770520265821       -5.08383584310927
H            4.84200955991328       -5.77361948137671       -5.17421738983305
H            3.42455383482198       -8.53899825405177       -6.37887160414122
H            5.07714014489718       -9.11410501441928       -6.29578778475083
H            5.80536188022200       -6.67741337900875       -6.61393390492262
H            3.01078456109540       -6.25512306500049       -6.70167613198746
H            4.30015143356334       -9.74982450054063       -3.81084596669091
H            5.30013538699732       -7.24626875371080       -0.13776890874970
H            3.58968895991720       -3.74615012936340       -3.37164229816795
H            4.70998904746382       -8.97706971963812       -1.51357625038948
H            8.06518113393583       -5.95457894346203       -3.06907174470666
